<?xml version="1.0" encoding="UTF-8"?>

<!-- generated on Mon Jun  6 16:59:56 2016 by SUMO polyconvert Version 0.25.0
<?xml version="1.0" encoding="UTF-8"?>

<configuration xmlns:xsi="http://www.w3.org/2001/XMLSchema-instance" xsi:noNamespaceSchemaLocation="http://sumo.dlr.de/xsd/polyconvertConfiguration.xsd">

    <input>
        <net-file value="manhattan.net.xml"/>
        <osm-files value="map.osm"/>
        <type-file value="manhattan.typ.xml"/>
    </input>

    <output>
        <output-file value="manhattan.poly.xml"/>
    </output>

    <processing>
        <poi-layer-offset value="5"/>
    </processing>

</configuration>
-->

<additional xmlns:xsi="http://www.w3.org/2001/XMLSchema-instance" xsi:noNamespaceSchemaLocation="http://sumo.dlr.de/xsd/additional_file.xsd">
    <location netOffset="-580854.86,-4507294.35" convBoundary="0.00,0.00,9043.46,10777.74" origBoundary="-74.041914,40.712283,-73.924680,40.808739" projParameter="+proj=utm +zone=18 +ellps=WGS84 +datum=WGS84 +units=m +no_defs"/>

    <poly id="108159980" type="amenity" color="237,199,199" fill="1" layer="-1.00" shape="3934.93,3862.73 3958.68,3907.49 3870.11,3954.76 3897.81,4006.34 4112.48,3891.09 4044.97,3766.97 3994.06,3794.61 4009.26,3822.81 3934.93,3862.73"/>
    <poly id="108160358" type="amenity" color="237,199,199" fill="1" layer="-1.00" shape="4330.83,4876.48 4359.87,4930.30 4256.85,4985.48 4142.85,5046.53 4137.59,5036.79 4132.31,5027.01 4127.52,5018.15 4123.47,5010.64 4113.80,4992.71 4330.83,4876.48"/>
    <poly id="108160358#1" type="building" color="255,230,230" fill="1" layer="-1.00" shape="4330.83,4876.48 4359.87,4930.30 4256.85,4985.48 4142.85,5046.53 4137.59,5036.79 4132.31,5027.01 4127.52,5018.15 4123.47,5010.64 4113.80,4992.71 4330.83,4876.48"/>
    <poly id="109284794" type="building" color="255,230,230" fill="1" layer="-1.00" shape="5114.34,5436.96 5085.33,5383.51 5090.27,5380.70 5094.27,5387.65 5095.43,5387.03 5101.45,5383.80 5102.61,5383.18 5109.22,5379.61 5110.38,5378.99 5117.00,5375.44 5118.17,5374.81 5124.77,5371.27 5125.94,5370.65 5132.53,5367.10 5133.69,5366.48 5140.31,5362.94 5141.47,5362.31 5148.07,5358.75 5149.24,5358.13 5155.84,5354.58 5157.00,5353.96 5163.61,5350.41 5164.77,5349.79 5171.38,5346.24 5172.56,5345.63 5178.57,5342.39 5179.73,5341.76 5180.36,5342.91 5183.41,5348.56 5184.04,5349.72 5187.40,5355.92 5188.02,5357.07 5191.39,5363.29 5192.01,5364.45 5195.06,5370.08 5195.69,5371.23 5197.63,5374.83 5215.87,5365.04 5223.20,5378.58 5169.36,5407.46 5114.34,5436.96"/>
    <poly id="109284795" type="building" color="255,230,230" fill="1" layer="-1.00" shape="5379.19,5316.26 5385.91,5328.56 5394.16,5343.71 5401.02,5356.32 5405.00,5363.62 5407.76,5368.61 5346.46,5402.51 5316.99,5418.43 5289.44,5433.29 5282.40,5420.35 5288.03,5417.32 5272.93,5389.55 5267.17,5392.65 5260.50,5380.40 5317.61,5349.57 5379.19,5316.26"/>
    <poly id="109284804" type="building" color="255,230,230" fill="1" layer="-1.00" shape="5030.06,5117.99 5029.60,5117.19 5029.99,5116.96 5026.13,5109.99 5025.75,5110.21 5025.28,5109.41 5025.67,5109.19 5021.80,5102.21 5021.42,5102.43 5020.96,5101.64 5021.36,5101.41 5017.50,5094.45 5017.11,5094.68 5016.65,5093.88 5017.05,5093.64 5013.18,5086.67 5012.80,5086.89 5012.33,5086.09 5012.73,5085.87 5008.86,5078.89 5008.47,5079.11 5008.01,5078.32 5008.41,5078.09 5004.54,5071.13 5004.17,5071.33 5003.71,5070.54 5004.46,5070.10 5004.70,5070.51 5011.70,5066.66 5011.46,5066.27 5012.23,5065.82 5012.47,5066.23 5019.45,5062.38 5019.23,5061.99 5020.00,5061.56 5020.23,5061.96 5027.22,5058.11 5026.99,5057.71 5027.75,5057.27 5027.99,5057.69 5034.99,5053.83 5034.75,5053.44 5035.52,5052.99 5035.76,5053.40 5042.75,5049.55 5042.52,5049.16 5043.28,5048.72 5043.75,5049.51 5043.37,5049.74 5047.24,5056.71 5047.60,5056.49 5048.07,5057.29 5047.68,5057.52 5051.54,5064.48 5051.92,5064.26 5052.38,5065.06 5052.00,5065.28 5055.85,5072.23 5056.21,5072.03 5056.67,5072.82 5056.30,5073.04 5060.18,5080.01 5060.53,5079.80 5061.00,5080.60 5060.62,5080.83 5064.49,5087.80 5064.86,5087.58 5065.33,5088.37 5064.94,5088.60 5068.81,5095.56 5069.18,5095.36 5069.64,5096.15 5068.87,5096.60 5068.64,5096.20 5061.66,5100.04 5061.88,5100.42 5061.13,5100.87 5060.89,5100.47 5053.88,5104.33 5054.11,5104.72 5053.34,5105.15 5053.11,5104.75 5046.13,5108.60 5046.35,5108.98 5045.59,5109.43 5045.35,5109.03 5038.36,5112.87 5038.58,5113.27 5037.83,5113.71 5037.59,5113.30 5030.60,5117.15 5030.83,5117.54 5030.06,5117.99"/>
    <poly id="109284807" type="building" color="255,230,230" fill="1" layer="-1.00" shape="5408.65,5268.05 5406.60,5264.37 5403.85,5259.26 5392.71,5238.64 5390.01,5233.51 5387.98,5229.76 5410.15,5217.88 5408.00,5213.90 5416.52,5209.42 5415.26,5207.08 5468.71,5178.38 5469.97,5180.73 5476.87,5193.51 5478.37,5196.28 5467.58,5202.05 5475.78,5217.27 5486.44,5211.58 5487.93,5214.36 5494.81,5227.09 5496.07,5229.44 5441.68,5258.55 5415.77,5272.58 5410.24,5271.08 5408.65,5268.05"/>
    <poly id="109285745" type="building" color="255,230,230" fill="1" layer="-1.00" shape="4664.14,4851.82 4636.76,4800.61 4673.35,4780.92 4686.96,4839.63 4676.88,4845.12 4664.14,4851.82"/>
    <poly id="113690621" type="tourism" color="207,245,201" fill="1" layer="-2.00" shape="5083.98,4932.47 5103.54,4922.17 5110.66,4918.41 5124.95,4944.97 5131.52,4957.19 5127.55,4959.34 5135.73,4974.55 5131.74,4976.60 5112.81,4986.37 5111.51,4983.98 5085.87,4936.00 5083.98,4932.47"/>
    <poly id="113690622" type="water" color="181,209,209" fill="1" layer="-4.00" shape="5155.13,5310.40 5177.08,5298.63 5160.71,5268.34 5138.76,5280.12 5155.13,5310.40"/>
    <poly id="113722987" type="landuse" color="194,194,130" fill="1" layer="-3.00" shape="4991.73,4629.66 4991.75,4628.09 4991.99,4626.51 4993.37,4624.95 4971.66,4583.87 4969.61,4584.30 4967.36,4583.36 4966.47,4582.00 4895.36,4621.11 4899.35,4629.27 4902.51,4629.31 4907.04,4630.04 4911.54,4632.12 4914.67,4635.54 4917.80,4638.97 4919.57,4642.82 4920.65,4647.34 4919.46,4652.06 4918.28,4656.11 4916.42,4660.38 4920.86,4668.32 4991.73,4629.66"/>
    <poly id="113722987#1" type="leisure" color="207,245,201" fill="1" layer="-2.00" shape="4991.73,4629.66 4991.75,4628.09 4991.99,4626.51 4993.37,4624.95 4971.66,4583.87 4969.61,4584.30 4967.36,4583.36 4966.47,4582.00 4895.36,4621.11 4899.35,4629.27 4902.51,4629.31 4907.04,4630.04 4911.54,4632.12 4914.67,4635.54 4917.80,4638.97 4919.57,4642.82 4920.65,4647.34 4919.46,4652.06 4918.28,4656.11 4916.42,4660.38 4920.86,4668.32 4991.73,4629.66"/>
    <poly id="114071252" type="building" color="255,230,230" fill="1" layer="-1.00" shape="5395.08,4392.72 5394.02,4393.29 5367.48,4407.41 5367.67,4407.76 5370.43,4412.90 5370.72,4413.45 5373.37,4418.38 5375.00,4421.43 5376.31,4423.87 5379.25,4429.35 5388.09,4445.81 5389.23,4447.94 5391.03,4451.29 5393.76,4456.39 5393.97,4456.78 5396.90,4462.24 5423.43,4448.12 5424.50,4447.55 5423.55,4445.81 5421.36,4441.70 5420.73,4440.53 5419.01,4437.31 5418.62,4436.58 5416.89,4433.36 5416.26,4432.19 5414.52,4428.94 5414.13,4428.23 5412.39,4424.99 5411.76,4423.81 5410.03,4420.56 5409.64,4419.85 5407.91,4416.62 5407.28,4415.44 5405.54,4412.19 5405.16,4411.48 5403.42,4408.25 5402.79,4407.08 5401.06,4403.86 5400.67,4403.13 5398.95,4399.94 5398.33,4398.76 5396.01,4394.46 5395.08,4392.72"/>
    <poly id="114193930" type="building" color="255,230,230" fill="1" layer="-1.00" shape="5068.00,4101.73 5039.68,4048.56 4988.17,4076.66 4997.81,4094.14 5000.84,4092.39 5010.61,4110.32 5000.85,4115.56 5009.37,4131.22 5009.93,4132.23 5068.00,4101.73"/>
    <poly id="118116797" type="building" color="255,230,230" fill="1" layer="-1.00" shape="5485.20,5144.43 5458.61,5094.20 5459.49,5090.79 5512.16,5062.83 5513.45,5065.13 5514.20,5066.56 5516.55,5070.66 5521.75,5080.37 5524.01,5084.56 5529.93,5095.27 5532.22,5099.42 5537.78,5109.20 5540.25,5113.84 5540.90,5115.21 5541.85,5116.99 5488.60,5145.43 5485.20,5144.43"/>
    <poly id="118116797#1" type="shop" color="237,199,255" fill="1" layer="-1.00" shape="5485.20,5144.43 5458.61,5094.20 5459.49,5090.79 5512.16,5062.83 5513.45,5065.13 5514.20,5066.56 5516.55,5070.66 5521.75,5080.37 5524.01,5084.56 5529.93,5095.27 5532.22,5099.42 5537.78,5109.20 5540.25,5113.84 5540.90,5115.21 5541.85,5116.99 5488.60,5145.43 5485.20,5144.43"/>
    <poly id="118116797#2" type="tourism" color="207,245,201" fill="1" layer="-2.00" shape="5485.20,5144.43 5458.61,5094.20 5459.49,5090.79 5512.16,5062.83 5513.45,5065.13 5514.20,5066.56 5516.55,5070.66 5521.75,5080.37 5524.01,5084.56 5529.93,5095.27 5532.22,5099.42 5537.78,5109.20 5540.25,5113.84 5540.90,5115.21 5541.85,5116.99 5488.60,5145.43 5485.20,5144.43"/>
    <poly id="118116810" type="building" color="255,230,230" fill="1" layer="-1.00" shape="6027.03,5216.72 5997.90,5163.07 5896.19,5217.85 5906.91,5237.58 5901.18,5240.67 5915.71,5267.42 5921.44,5264.34 5925.32,5271.51 6027.03,5216.72"/>
    <poly id="118476490" type="building" color="255,230,230" fill="1" layer="-1.00" shape="5726.23,5107.45 5724.61,5104.49 5722.70,5100.97 5720.33,5096.60 5716.46,5089.49 5715.71,5088.11 5714.94,5086.70 5714.18,5085.30 5713.42,5083.91 5712.67,5082.51 5711.93,5081.06 5710.36,5081.90 5709.78,5080.81 5709.61,5080.50 5708.87,5079.12 5708.10,5077.74 5707.34,5076.34 5706.58,5074.95 5705.81,5073.56 5705.05,5072.17 5701.15,5065.06 5698.78,5060.73 5696.93,5057.36 5695.64,5055.01 5695.39,5054.55 5711.95,5045.57 5736.19,5032.49 5765.43,5086.27 5741.16,5099.38 5726.23,5107.45"/>
    <poly id="118476491" type="building" color="255,230,230" fill="1" layer="-1.00" shape="5620.72,5065.34 5599.00,5024.81 5646.14,4999.55 5657.00,5019.69 5667.84,5040.09 5620.72,5065.34"/>
    <poly id="118476493" type="building" color="255,230,230" fill="1" layer="-1.00" shape="5878.98,5295.88 5850.14,5242.46 5809.07,5264.63 5822.54,5289.58 5811.95,5295.29 5827.33,5323.76 5878.98,5295.88"/>
    <poly id="118476502" type="building" color="255,230,230" fill="1" layer="-1.00" shape="5458.47,5361.96 5470.89,5384.59 5475.16,5382.26 5477.69,5386.88 5486.91,5403.65 5492.65,5414.17 5573.11,5370.33 5543.18,5315.81 5458.47,5361.96"/>
    <poly id="137564642" type="building" color="255,230,230" fill="1" layer="-1.00" shape="5517.45,4674.28 5517.78,4674.88 5596.48,4632.28 5596.10,4631.59 5596.72,4631.25 5571.78,4584.95 5557.84,4559.13 5551.14,4547.07 5545.87,4549.93 5537.94,4535.29 5523.06,4543.33 5485.85,4562.95 5468.55,4572.87 5476.40,4587.37 5472.16,4589.66 5472.35,4590.02 5471.50,4590.48 5478.16,4602.98 5491.35,4627.34 5517.00,4674.53 5517.45,4674.28"/>
    <poly id="137707119" type="building" color="255,230,230" fill="1" layer="-1.00" shape="5044.78,5560.76 5036.55,5545.35 5039.65,5543.72 5029.76,5525.23 5026.67,5526.87 5018.62,5511.82 5047.51,5496.57 5095.22,5471.27 5103.38,5466.96 5111.73,5462.56 5126.82,5454.44 5130.79,5461.76 5148.89,5495.84 5152.97,5503.38 5137.88,5511.49 5129.76,5515.78 5121.38,5520.21 5073.66,5545.52 5044.78,5560.76"/>
    <poly id="137716320" type="building" color="255,230,230" fill="1" layer="-1.00" shape="4817.41,5138.35 4792.09,5090.01 4842.26,5063.87 4845.91,5071.24 4846.40,5072.17 4848.74,5076.57 4856.01,5090.27 4865.74,5085.18 4876.85,5106.32 4879.96,5112.42 4848.18,5129.01 4845.41,5123.73 4817.41,5138.35"/>
    <poly id="137860913" type="building" color="255,230,230" fill="1" layer="-1.00" shape="5703.70,4847.30 5699.31,4838.98 5693.60,4841.98 5675.63,4807.99 5681.50,4804.90 5676.93,4796.24 5771.55,4746.62 5798.48,4797.61 5703.70,4847.30"/>
    <poly id="137874157" type="building" color="255,230,230" fill="1" layer="-1.00" shape="4889.71,5552.99 4824.45,5587.98 4823.79,5586.76 4821.57,5587.95 4798.51,5545.29 4800.84,5544.05 4800.20,5542.87 4865.36,5507.93 4889.71,5552.99"/>
    <poly id="137874843" type="amenity" color="237,199,199" fill="1" layer="-1.00" shape="4795.67,5539.99 4766.25,5555.72 4771.85,5566.10 4773.50,5569.17 4775.70,5573.24 4781.07,5583.22 4787.85,5595.79 4789.70,5599.23 4795.22,5609.45 4824.64,5593.70 4821.57,5587.95 4798.51,5545.29 4795.67,5539.99"/>
    <poly id="137874843#1" type="building" color="255,230,230" fill="1" layer="-1.00" shape="4795.67,5539.99 4766.25,5555.72 4771.85,5566.10 4773.50,5569.17 4775.70,5573.24 4781.07,5583.22 4787.85,5595.79 4789.70,5599.23 4795.22,5609.45 4824.64,5593.70 4821.57,5587.95 4798.51,5545.29 4795.67,5539.99"/>
    <poly id="137883073" type="building" color="255,230,230" fill="1" layer="-1.00" shape="5633.21,5608.94 5628.85,5601.31 5626.80,5597.53 5622.60,5589.76 5620.36,5585.62 5618.72,5582.55 5631.92,5575.31 5634.70,5573.81 5661.11,5559.61 5664.02,5558.05 5666.13,5556.88 5672.08,5553.71 5686.18,5579.18 5633.21,5608.94"/>
    <poly id="137885993" type="building" color="255,230,230" fill="1" layer="-1.00" shape="5864.84,5032.57 5863.97,5030.96 5849.91,5005.07 5870.11,4994.10 5868.97,4992.00 5874.09,4989.21 5886.63,4982.38 5889.72,4980.70 5891.46,4979.75 5893.81,4978.47 5895.91,4977.33 5910.10,5003.71 5910.28,5004.15 5910.49,5005.12 5910.48,5005.80 5910.32,5006.60 5909.91,5007.51 5909.62,5007.92 5909.27,5008.28 5908.46,5008.88 5864.84,5032.57"/>
    <poly id="137891657" type="building" color="255,230,230" fill="1" layer="-1.00" shape="5918.61,5024.62 5891.52,5039.14 5898.12,5051.36 5842.27,5081.30 5853.90,5102.84 5839.04,5110.80 5849.87,5130.86 5947.68,5078.46 5918.61,5024.62"/>
    <poly id="138022483" type="building" color="255,230,230" fill="1" layer="-1.00" shape="5345.71,4487.61 5350.30,4485.17 5351.11,4486.67 5366.35,4478.55 5381.64,4470.40 5396.90,4462.24 5393.97,4456.78 5393.76,4456.39 5391.03,4451.29 5389.23,4447.94 5388.09,4445.81 5379.25,4429.35 5376.31,4423.87 5375.00,4421.43 5373.37,4418.38 5370.72,4413.45 5370.43,4412.90 5367.67,4407.76 5367.48,4407.41 5352.20,4415.50 5336.95,4423.62 5321.57,4431.81 5316.66,4434.42 5317.02,4435.13 5324.37,4448.67 5318.56,4451.80 5306.13,4458.49 5299.98,4461.80 5293.47,4465.30 5301.70,4480.27 5308.13,4476.85 5314.33,4473.55 5332.87,4463.67 5345.71,4487.61"/>
    <poly id="138141251" type="building" color="255,230,230" fill="1" layer="-1.00" shape="4032.58,4257.75 4041.21,4253.27 4041.25,4251.40 4042.17,4242.42 4044.23,4233.41 4047.52,4225.47 4055.86,4225.55 4056.92,4227.62 4060.56,4220.30 4065.91,4212.99 4071.60,4207.08 4078.79,4201.40 4086.53,4196.89 4094.41,4193.63 4102.43,4191.48 4111.22,4190.34 4120.21,4190.43 4121.70,4190.56 4128.30,4181.99 4131.87,4182.65 4140.81,4185.32 4144.61,4187.02 4144.92,4197.51 4152.42,4202.08 4157.32,4194.02 4160.14,4196.06 4166.27,4200.50 4163.68,4204.08 4169.95,4210.63 4175.13,4217.88 4179.26,4225.56 4182.50,4233.95 4184.75,4243.40 4188.58,4242.87 4188.98,4250.99 4189.00,4254.76 4179.49,4254.36 4178.96,4262.93 4187.73,4267.95 4186.65,4273.02 4183.83,4281.60 4182.14,4285.42 4171.63,4285.19 4167.30,4292.01 4161.42,4298.99 4155.40,4304.46 4148.37,4309.34 4140.34,4313.43 4132.62,4316.14 4124.61,4317.84 4116.52,4318.53 4107.78,4318.13 4106.16,4317.92 4107.41,4320.98 4102.99,4326.91 4101.61,4326.64 4095.96,4325.52 4088.58,4323.05 4087.37,4322.64 4084.88,4321.46 4079.20,4318.75 4074.58,4315.97 4066.75,4320.33 4032.58,4257.75"/>
    <poly id="138141251#1" type="leisure" color="207,245,201" fill="1" layer="-2.00" shape="4032.58,4257.75 4041.21,4253.27 4041.25,4251.40 4042.17,4242.42 4044.23,4233.41 4047.52,4225.47 4055.86,4225.55 4056.92,4227.62 4060.56,4220.30 4065.91,4212.99 4071.60,4207.08 4078.79,4201.40 4086.53,4196.89 4094.41,4193.63 4102.43,4191.48 4111.22,4190.34 4120.21,4190.43 4121.70,4190.56 4128.30,4181.99 4131.87,4182.65 4140.81,4185.32 4144.61,4187.02 4144.92,4197.51 4152.42,4202.08 4157.32,4194.02 4160.14,4196.06 4166.27,4200.50 4163.68,4204.08 4169.95,4210.63 4175.13,4217.88 4179.26,4225.56 4182.50,4233.95 4184.75,4243.40 4188.58,4242.87 4188.98,4250.99 4189.00,4254.76 4179.49,4254.36 4178.96,4262.93 4187.73,4267.95 4186.65,4273.02 4183.83,4281.60 4182.14,4285.42 4171.63,4285.19 4167.30,4292.01 4161.42,4298.99 4155.40,4304.46 4148.37,4309.34 4140.34,4313.43 4132.62,4316.14 4124.61,4317.84 4116.52,4318.53 4107.78,4318.13 4106.16,4317.92 4107.41,4320.98 4102.99,4326.91 4101.61,4326.64 4095.96,4325.52 4088.58,4323.05 4087.37,4322.64 4084.88,4321.46 4079.20,4318.75 4074.58,4315.97 4066.75,4320.33 4032.58,4257.75"/>
    <poly id="138141251#2" type="sport" color="79,230,125" fill="1" layer="-2.00" shape="4032.58,4257.75 4041.21,4253.27 4041.25,4251.40 4042.17,4242.42 4044.23,4233.41 4047.52,4225.47 4055.86,4225.55 4056.92,4227.62 4060.56,4220.30 4065.91,4212.99 4071.60,4207.08 4078.79,4201.40 4086.53,4196.89 4094.41,4193.63 4102.43,4191.48 4111.22,4190.34 4120.21,4190.43 4121.70,4190.56 4128.30,4181.99 4131.87,4182.65 4140.81,4185.32 4144.61,4187.02 4144.92,4197.51 4152.42,4202.08 4157.32,4194.02 4160.14,4196.06 4166.27,4200.50 4163.68,4204.08 4169.95,4210.63 4175.13,4217.88 4179.26,4225.56 4182.50,4233.95 4184.75,4243.40 4188.58,4242.87 4188.98,4250.99 4189.00,4254.76 4179.49,4254.36 4178.96,4262.93 4187.73,4267.95 4186.65,4273.02 4183.83,4281.60 4182.14,4285.42 4171.63,4285.19 4167.30,4292.01 4161.42,4298.99 4155.40,4304.46 4148.37,4309.34 4140.34,4313.43 4132.62,4316.14 4124.61,4317.84 4116.52,4318.53 4107.78,4318.13 4106.16,4317.92 4107.41,4320.98 4102.99,4326.91 4101.61,4326.64 4095.96,4325.52 4088.58,4323.05 4087.37,4322.64 4084.88,4321.46 4079.20,4318.75 4074.58,4315.97 4066.75,4320.33 4032.58,4257.75"/>
    <poly id="138141251#3" type="tourism" color="207,245,201" fill="1" layer="-2.00" shape="4032.58,4257.75 4041.21,4253.27 4041.25,4251.40 4042.17,4242.42 4044.23,4233.41 4047.52,4225.47 4055.86,4225.55 4056.92,4227.62 4060.56,4220.30 4065.91,4212.99 4071.60,4207.08 4078.79,4201.40 4086.53,4196.89 4094.41,4193.63 4102.43,4191.48 4111.22,4190.34 4120.21,4190.43 4121.70,4190.56 4128.30,4181.99 4131.87,4182.65 4140.81,4185.32 4144.61,4187.02 4144.92,4197.51 4152.42,4202.08 4157.32,4194.02 4160.14,4196.06 4166.27,4200.50 4163.68,4204.08 4169.95,4210.63 4175.13,4217.88 4179.26,4225.56 4182.50,4233.95 4184.75,4243.40 4188.58,4242.87 4188.98,4250.99 4189.00,4254.76 4179.49,4254.36 4178.96,4262.93 4187.73,4267.95 4186.65,4273.02 4183.83,4281.60 4182.14,4285.42 4171.63,4285.19 4167.30,4292.01 4161.42,4298.99 4155.40,4304.46 4148.37,4309.34 4140.34,4313.43 4132.62,4316.14 4124.61,4317.84 4116.52,4318.53 4107.78,4318.13 4106.16,4317.92 4107.41,4320.98 4102.99,4326.91 4101.61,4326.64 4095.96,4325.52 4088.58,4323.05 4087.37,4322.64 4084.88,4321.46 4079.20,4318.75 4074.58,4315.97 4066.75,4320.33 4032.58,4257.75"/>
    <poly id="138147416" type="building" color="255,230,230" fill="1" layer="-1.00" shape="4289.91,4329.24 4240.33,4355.84 4236.29,4348.38 4204.01,4365.71 4201.40,4360.88 4168.47,4378.54 4166.58,4375.06 4159.02,4379.11 4147.27,4357.36 4154.82,4353.31 4152.93,4349.81 4185.86,4332.15 4183.25,4327.32 4215.53,4309.99 4211.50,4302.53 4261.08,4275.93 4289.91,4329.24"/>
    <poly id="138147417" type="building" color="255,230,230" fill="1" layer="-1.00" shape="4215.11,4228.37 4192.45,4186.57 4166.27,4200.50 4163.68,4204.08 4169.95,4210.63 4175.13,4217.88 4179.26,4225.56 4182.50,4233.95 4184.75,4243.40 4188.58,4242.87 4215.11,4228.37"/>
    <poly id="138152330" type="building" color="255,230,230" fill="1" layer="-1.00" shape="4380.32,4906.92 4379.88,4907.24 4358.97,4869.02 4359.53,4868.63 4358.32,4866.42 4360.15,4865.43 4368.12,4861.13 4365.62,4856.53 4365.40,4856.10 4387.96,4843.94 4388.21,4844.41 4390.69,4848.98 4401.96,4842.90 4399.96,4839.06 4464.93,4804.44 4476.80,4826.63 4479.89,4832.41 4491.77,4854.64 4490.95,4855.07 4491.51,4856.25 4428.06,4890.71 4424.68,4884.73 4413.41,4890.80 4415.91,4895.40 4416.18,4895.89 4393.62,4908.04 4393.36,4907.55 4390.84,4902.96 4383.07,4907.15 4381.04,4908.24 4380.32,4906.92"/>
    <poly id="138152331" type="building" color="255,230,230" fill="1" layer="-1.00" shape="4420.31,4875.28 4439.31,4864.88 4428.71,4845.51 4409.71,4855.87 4420.31,4875.28"/>
    <poly id="143858914" type="building" color="255,230,230" fill="1" layer="-1.00" shape="4662.14,5250.85 4676.46,5277.22 4676.73,5277.72 4680.74,5285.12 4691.08,5304.18 4731.70,5282.18 4748.91,5272.80 4734.61,5246.44 4730.81,5248.49 4717.44,5255.88 4703.76,5263.18 4683.53,5274.15 4668.90,5247.19 4662.14,5250.85"/>
    <poly id="143858914#1" type="tourism" color="207,245,201" fill="1" layer="-2.00" shape="4662.14,5250.85 4676.46,5277.22 4676.73,5277.72 4680.74,5285.12 4691.08,5304.18 4731.70,5282.18 4748.91,5272.80 4734.61,5246.44 4730.81,5248.49 4717.44,5255.88 4703.76,5263.18 4683.53,5274.15 4668.90,5247.19 4662.14,5250.85"/>
    <poly id="144157265" type="leisure" color="207,245,201" fill="1" layer="-2.00" shape="5726.50,3742.88 5707.08,3752.61 5682.34,3703.99 5701.33,3694.21 5726.50,3742.88"/>
    <poly id="144157265#1" type="sport" color="79,230,125" fill="1" layer="-2.00" shape="5726.50,3742.88 5707.08,3752.61 5682.34,3703.99 5701.33,3694.21 5726.50,3742.88"/>
    <poly id="144157266" type="leisure" color="207,245,201" fill="1" layer="-2.00" shape="5691.44,3760.62 5707.08,3752.61 5682.34,3703.99 5665.34,3712.55 5691.44,3760.62"/>
    <poly id="144157266#1" type="sport" color="79,230,125" fill="1" layer="-2.00" shape="5691.44,3760.62 5707.08,3752.61 5682.34,3703.99 5665.34,3712.55 5691.44,3760.62"/>
    <poly id="144177848" type="building" color="255,230,230" fill="1" layer="-1.00" shape="5664.31,3936.94 5654.84,3919.31 5661.03,3916.02 5657.76,3909.87 5662.85,3907.16 5661.56,3904.64 5673.58,3892.33 5690.56,3889.09 5691.48,3890.79 5697.76,3887.42 5708.45,3907.25 5713.17,3916.14 5707.39,3919.23 5708.50,3921.30 5696.26,3934.57 5679.27,3937.20 5677.56,3933.83 5672.21,3936.66 5670.62,3933.57 5664.31,3936.94"/>
    <poly id="144312950" type="parking" color="184,184,179" fill="1" layer="-1.00" shape="5643.93,3849.78 5627.77,3820.16 5636.12,3815.64 5674.63,3794.79 5690.80,3824.41 5643.93,3849.78"/>
    <poly id="144919873" type="building" color="255,230,230" fill="1" layer="-1.00" shape="5835.72,4868.00 5806.99,4814.27 5789.88,4823.35 5767.34,4835.31 5750.11,4844.45 5778.84,4898.18 5796.06,4889.03 5818.59,4877.08 5835.72,4868.00"/>
    <poly id="144919873#1" type="tourism" color="207,245,201" fill="1" layer="-2.00" shape="5835.72,4868.00 5806.99,4814.27 5789.88,4823.35 5767.34,4835.31 5750.11,4844.45 5778.84,4898.18 5796.06,4889.03 5818.59,4877.08 5835.72,4868.00"/>
    <poly id="144919878" type="building" color="255,230,230" fill="1" layer="-1.00" shape="5768.04,4897.00 5744.61,4853.17 5703.92,4874.75 5727.35,4918.58 5768.04,4897.00"/>
    <poly id="144932295" type="building" color="255,230,230" fill="1" layer="-1.00" shape="5635.26,4732.66 5660.54,4778.09 5757.76,4724.41 5732.49,4678.99 5635.26,4732.66"/>
    <poly id="145341258" type="building" color="255,230,230" fill="1" layer="-1.00" shape="5906.47,5140.09 5902.70,5133.10 5879.89,5145.32 5900.39,5183.27 5923.40,5170.94 5919.13,5163.03 5926.54,5159.05 5934.71,5174.17 5958.15,5161.60 5949.88,5146.31 5944.08,5135.56 5943.59,5135.82 5940.62,5130.32 5936.95,5123.53 5936.00,5121.77 5934.48,5118.96 5931.40,5113.25 5929.29,5109.36 5906.37,5121.65 5914.12,5135.99 5906.47,5140.09"/>
    <poly id="145341302" type="building" color="255,230,230" fill="1" layer="-1.00" shape="5326.68,5165.30 5332.42,5176.33 5334.03,5175.45 5337.19,5181.11 5346.41,5197.97 5349.49,5203.78 5347.88,5204.66 5353.98,5215.84 5231.15,5282.90 5228.64,5278.36 5227.86,5276.91 5209.48,5286.97 5186.57,5245.08 5184.06,5240.39 5201.65,5230.72 5202.87,5233.09 5326.68,5165.30"/>
    <poly id="145427087" type="building" color="255,230,230" fill="1" layer="-1.00" shape="5215.26,5653.43 5337.20,5588.13 5308.54,5534.80 5184.34,5601.55 5198.69,5628.53 5200.84,5627.36 5209.26,5642.36 5215.26,5653.43"/>
    <poly id="145427087#1" type="tourism" color="207,245,201" fill="1" layer="-2.00" shape="5215.26,5653.43 5337.20,5588.13 5308.54,5534.80 5184.34,5601.55 5198.69,5628.53 5200.84,5627.36 5209.26,5642.36 5215.26,5653.43"/>
    <poly id="146028962" type="building" color="255,230,230" fill="1" layer="-1.00" shape="5199.47,5571.82 5196.90,5567.05 5192.67,5559.16 5182.12,5539.73 5179.51,5534.91 5177.48,5531.35 5173.02,5523.23 5170.40,5518.53 5196.53,5503.91 5199.33,5509.06 5255.47,5478.83 5259.81,5487.00 5269.81,5481.61 5285.00,5509.42 5274.05,5515.33 5278.32,5523.20 5223.50,5552.72 5226.11,5557.52 5199.47,5571.82"/>
    <poly id="146028965" type="building" color="255,230,230" fill="1" layer="-1.00" shape="5152.97,5503.38 5148.89,5495.84 5130.79,5461.76 5126.82,5454.44 5179.58,5426.51 5183.54,5433.96 5187.94,5431.65 5186.34,5428.64 5232.41,5404.30 5253.81,5444.49 5207.71,5468.85 5206.04,5465.73 5201.63,5468.05 5205.62,5475.55 5186.39,5485.97 5152.97,5503.38"/>
    <poly id="146031971" type="building" color="255,230,230" fill="1" layer="-1.00" shape="5084.62,5361.07 5080.78,5363.11 5065.43,5371.26 5051.72,5345.90 5035.90,5354.40 5022.23,5329.11 5062.32,5307.56 5068.08,5318.21 5133.46,5283.14 5149.55,5312.91 5079.04,5350.73 5084.62,5361.07"/>
    <poly id="146109229" type="building" color="255,230,230" fill="1" layer="-1.00" shape="5805.75,5357.55 5795.15,5363.26 5781.45,5370.87 5788.19,5382.91 5799.41,5403.38 5823.73,5390.02 5805.75,5357.55"/>
    <poly id="146220936" type="building" color="255,230,230" fill="1" layer="-1.00" shape="5582.75,4826.41 5616.87,4808.22 5607.29,4790.40 5597.72,4772.58 5588.15,4754.76 5554.02,4772.95 5582.75,4826.41"/>
    <poly id="146278002" type="building" color="255,230,230" fill="1" layer="-1.00" shape="5607.10,4895.61 5601.93,4885.97 5600.25,4882.84 5591.03,4865.66 5589.43,4862.67 5583.80,4852.19 5622.58,4831.56 5645.87,4874.98 5607.10,4895.61"/>
    <poly id="146278003" type="building" color="255,230,230" fill="1" layer="-1.00" shape="5601.93,4885.97 5600.25,4882.84 5591.03,4865.66 5589.43,4862.67 5579.96,4867.70 5573.32,4855.31 5518.89,4884.24 5544.57,4932.19 5598.93,4903.31 5592.37,4891.06 5601.93,4885.97"/>
    <poly id="148241073" type="building" color="255,230,230" fill="1" layer="-1.00" shape="5825.92,5270.01 5844.03,5260.38 5852.74,5276.66 5834.64,5286.29 5825.92,5270.01"/>
    <poly id="148251193" type="building" color="255,230,230" fill="1" layer="-1.00" shape="5481.31,5480.68 5478.33,5482.25 5475.34,5483.80 5467.27,5488.05 5464.28,5489.65 5461.40,5491.27 5457.56,5484.72 5454.47,5486.36 5451.38,5487.99 5447.88,5481.42 5440.56,5467.74 5438.82,5464.49 5441.91,5462.85 5445.01,5461.21 5459.15,5453.71 5462.24,5452.08 5465.25,5450.44 5481.31,5480.68"/>
    <poly id="148251198" type="building" color="255,230,230" fill="1" layer="-1.00" shape="5578.08,5457.99 5610.76,5440.63 5601.93,5424.02 5596.56,5413.92 5592.57,5416.11 5589.92,5417.52 5563.92,5431.35 5566.63,5436.49 5572.58,5447.59 5576.09,5454.15 5578.08,5457.99"/>
    <poly id="148457887" type="building" color="255,230,230" fill="1" layer="-1.00" shape="5235.74,4545.18 5232.61,4539.61 5222.64,4521.20 5220.32,4516.91 5208.12,4523.45 5203.62,4515.13 5196.50,4501.98 5195.78,4500.64 5261.58,4465.31 5289.18,4516.32 5235.74,4545.18"/>
    <poly id="156943046" type="building" color="255,230,230" fill="1" layer="-1.00" shape="5179.82,3844.84 5177.25,3844.10 5176.56,3843.93 5175.59,3843.66 5174.12,3848.91 5168.87,3847.44 5168.59,3848.44 5168.43,3849.03 5167.67,3851.69 5166.02,3851.21 5159.58,3849.39 5157.89,3848.92 5151.45,3847.10 5149.76,3846.63 5143.32,3844.81 5141.58,3844.33 5142.32,3841.75 5142.51,3841.08 5142.76,3840.17 5137.40,3838.68 5138.90,3833.35 5137.94,3833.08 5137.36,3832.93 5134.73,3832.17 5135.20,3830.49 5137.01,3824.06 5137.50,3822.37 5139.31,3815.94 5139.79,3814.27 5141.57,3807.84 5142.03,3806.18 5144.60,3806.91 5145.23,3807.07 5146.20,3807.34 5147.66,3802.10 5152.92,3803.56 5153.19,3802.61 5153.36,3801.99 5154.10,3799.37 5186.47,3782.24 5196.08,3799.86 5211.49,3827.89 5179.82,3844.84"/>
    <poly id="156948911" type="leisure" color="207,245,201" fill="1" layer="-2.00" shape="5815.79,3672.43 5798.20,3681.61 5790.35,3666.68 5807.94,3657.51 5815.79,3672.43"/>
    <poly id="156948913" type="leisure" color="207,245,201" fill="1" layer="-2.00" shape="5790.48,3706.66 5741.13,3732.84 5719.10,3691.65 5768.45,3665.46 5790.48,3706.66"/>
    <poly id="156948913#1" type="sport" color="79,230,125" fill="1" layer="-2.00" shape="5790.48,3706.66 5741.13,3732.84 5719.10,3691.65 5768.45,3665.46 5790.48,3706.66"/>
    <poly id="157835453" type="building" color="255,230,230" fill="1" layer="-1.00" shape="4644.98,5079.36 4647.35,5083.68 4650.19,5082.13 4654.12,5089.31 4651.31,5090.84 4649.57,5091.79 4652.25,5092.55 4656.57,5093.79 4668.55,5115.68 4666.64,5118.67 4664.65,5121.74 4667.46,5120.12 4672.95,5130.13 4677.30,5127.77 4676.06,5125.49 4681.60,5122.48 4683.43,5125.94 4685.18,5120.53 4708.59,5107.81 4713.68,5111.29 4715.73,5110.92 4748.14,5093.58 4752.07,5091.47 4725.72,5042.61 4722.04,5044.73 4719.58,5040.05 4722.36,5036.91 4718.85,5038.69 4684.47,5056.38 4680.20,5058.73 4682.37,5063.60 4660.30,5075.59 4654.82,5071.98 4655.63,5073.57 4644.98,5079.36"/>
    <poly id="158854338" type="building" color="255,230,230" fill="1" layer="-1.00" shape="4203.75,5101.76 4202.51,5099.37 4192.60,5080.80 4191.26,5078.41 4189.66,5075.43 4194.08,5073.07 4191.17,5067.43 4186.38,5058.56 4179.74,5046.31 4193.62,5038.83 4200.28,5051.11 4205.03,5059.84 4208.44,5066.69 4221.53,5059.15 4224.71,5064.87 4234.02,5082.24 4235.38,5084.83 4203.75,5101.76"/>
    <poly id="158858760" type="building" color="255,230,230" fill="1" layer="-1.00" shape="4791.19,3665.89 4784.59,3653.56 4779.08,3656.49 4774.44,3647.82 4788.06,3640.58 4792.70,3649.25 4801.28,3665.20 4805.52,3673.11 4795.23,3678.57 4789.73,3668.33 4789.04,3667.03 4791.19,3665.89"/>
    <poly id="159028631" type="tourism" color="207,245,201" fill="1" layer="-2.00" shape="5396.29,5163.83 5393.20,5158.09 5434.15,5136.23 5437.24,5141.96 5396.29,5163.83"/>
    <poly id="159837290" type="building" color="255,230,230" fill="1" layer="-1.00" shape="4579.03,4668.56 4572.66,4657.07 4615.86,4633.36 4622.42,4645.20 4626.56,4642.97 4642.36,4672.01 4638.46,4674.13 4644.82,4685.65 4601.62,4709.34 4595.10,4697.55 4590.85,4699.85 4575.02,4670.72 4579.03,4668.56"/>