<configuration>
	<input>
		<net-file value = "manhattan.net.xml"/>
		<route-files value="manhattan.rou.xml"/>
		<additional-files value="manhattan.poly.xml"/>
	</input>
	<time>
		<begin value="0"/>
		<end value="10000"/>
	</time>
</configuration>
