<?xml version="1.0" encoding="UTF-8"?>

<!-- generated on Mon Jun  6 16:54:59 2016 by SUMO netconvert Version 0.25.0
<?xml version="1.0" encoding="UTF-8"?>

<configuration xmlns:xsi="http://www.w3.org/2001/XMLSchema-instance" xsi:noNamespaceSchemaLocation="http://sumo.dlr.de/xsd/netconvertConfiguration.xsd">

    <input>
        <osm-files value="map.osm"/>
    </input>

    <output>
        <output-file value="manhattan.net.xml"/>
    </output>

    <projection>
        <proj.utm value="true"/>
    </projection>

    <tls_building>
        <tls.discard-simple value="true"/>
        <tls.join value="true"/>
        <tls.guess-signals value="true"/>
    </tls_building>

    <ramp_guessing>
        <ramps.guess value="true"/>
    </ramp_guessing>

    <processing>
        <geometry.remove value="true"/>
        <roundabouts.guess value="true"/>
        <junctions.join value="true"/>
    </processing>

</configuration>
-->

<net version="0.25" xmlns:xsi="http://www.w3.org/2001/XMLSchema-instance" xsi:noNamespaceSchemaLocation="http://sumo.dlr.de/xsd/net_file.xsd">

    <location netOffset="-580854.86,-4507294.35" convBoundary="0.00,0.00,9043.46,10777.74" origBoundary="-74.041914,40.712283,-73.924680,40.808739" projParameter="+proj=utm +zone=18 +ellps=WGS84 +datum=WGS84 +units=m +no_defs"/>

    <type id="highway.bridleway" priority="1" numLanes="1" speed="2.78" allow="pedestrian" oneway="1" width="2.00"/>
    <type id="highway.bus_guideway" priority="1" numLanes="1" speed="8.33" allow="bus" oneway="1"/>
    <type id="highway.cycleway" priority="1" numLanes="1" speed="5.56" allow="bicycle" oneway="0" width="1.00"/>
    <type id="highway.footway" priority="1" numLanes="1" speed="8.33" allow="pedestrian" oneway="1" width="2.00"/>
    <type id="highway.ford" priority="1" numLanes="1" speed="2.78" allow="army" oneway="0"/>
    <type id="highway.living_street" priority="3" numLanes="1" speed="2.78" disallow="tram rail_urban rail rail_electric ship" oneway="0"/>
    <type id="highway.motorway" priority="13" numLanes="2" speed="44.44" allow="private emergency authority army vip passenger hov taxi bus coach delivery truck trailer motorcycle evehicle custom1 custom2" oneway="1"/>
    <type id="highway.motorway_link" priority="12" numLanes="1" speed="22.22" allow="private emergency authority army vip passenger hov taxi bus coach delivery truck trailer motorcycle evehicle custom1 custom2" oneway="1"/>
    <type id="highway.path" priority="1" numLanes="1" speed="2.78" allow="bicycle pedestrian" oneway="1" width="2.00"/>
    <type id="highway.pedestrian" priority="1" numLanes="1" speed="8.33" allow="pedestrian" oneway="1" width="2.00"/>
    <type id="highway.primary" priority="9" numLanes="2" speed="27.78" disallow="tram rail_urban rail rail_electric ship" oneway="0"/>
    <type id="highway.primary_link" priority="8" numLanes="1" speed="22.22" disallow="tram rail_urban rail rail_electric ship" oneway="0"/>
    <type id="highway.raceway" priority="14" numLanes="2" speed="83.33" allow="vip" oneway="0"/>
    <type id="highway.residential" priority="4" numLanes="1" speed="13.89" disallow="tram rail_urban rail rail_electric ship" oneway="0"/>
    <type id="highway.secondary" priority="7" numLanes="2" speed="27.78" disallow="tram rail_urban rail rail_electric ship" oneway="0"/>
    <type id="highway.secondary_link" priority="6" numLanes="1" speed="22.22" disallow="tram rail_urban rail rail_electric ship" oneway="0"/>
    <type id="highway.service" priority="2" numLanes="1" speed="5.56" allow="delivery bicycle pedestrian" oneway="0"/>
    <type id="highway.services" priority="1" numLanes="1" speed="8.33" disallow="tram rail_urban rail rail_electric ship" oneway="0"/>
    <type id="highway.stairs" priority="1" numLanes="1" speed="1.39" allow="pedestrian" oneway="1" width="2.00"/>
    <type id="highway.step" priority="1" numLanes="1" speed="1.39" allow="pedestrian" oneway="1" width="2.00"/>
    <type id="highway.steps" priority="1" numLanes="1" speed="1.39" allow="pedestrian" oneway="1" width="2.00"/>
    <type id="highway.tertiary" priority="6" numLanes="1" speed="22.22" disallow="tram rail_urban rail rail_electric ship" oneway="0"/>
    <type id="highway.tertiary_link" priority="5" numLanes="1" speed="22.22" disallow="tram rail_urban rail rail_electric ship" oneway="0"/>
    <type id="highway.track" priority="1" numLanes="1" speed="5.56" disallow="tram rail_urban rail rail_electric ship" oneway="0"/>
    <type id="highway.trunk" priority="11" numLanes="2" speed="27.78" disallow="tram rail_urban rail rail_electric bicycle pedestrian ship" oneway="0"/>
    <type id="highway.trunk_link" priority="10" numLanes="1" speed="22.22" disallow="tram rail_urban rail rail_electric bicycle pedestrian ship" oneway="0"/>
    <type id="highway.unclassified" priority="5" numLanes="1" speed="13.89" disallow="tram rail_urban rail rail_electric ship" oneway="0"/>
    <type id="highway.unsurfaced" priority="1" numLanes="1" speed="8.33" disallow="tram rail_urban rail rail_electric ship" oneway="0"/>
    <type id="railway.light_rail" priority="15" numLanes="1" speed="27.78" allow="rail_urban" oneway="1"/>
    <type id="railway.preserved" priority="15" numLanes="1" speed="27.78" allow="rail" oneway="1"/>
    <type id="railway.rail" priority="15" numLanes="1" speed="83.33" allow="rail rail_electric" oneway="1"/>
    <type id="railway.subway" priority="15" numLanes="1" speed="27.78" allow="rail_urban" oneway="1"/>
    <type id="railway.tram" priority="15" numLanes="1" speed="13.89" allow="tram" oneway="1"/>

    <edge id=":106705771_0" function="internal">
        <lane id=":106705771_0_0" index="0" allow="private emergency authority army vip passenger hov taxi bus coach delivery truck trailer motorcycle evehicle custom1 custom2" speed="31.16" length="0.23" shape="5895.83,3735.48 5895.93,3735.51"/>
        <lane id=":106705771_0_1" index="1" allow="private emergency authority army vip passenger hov taxi bus coach delivery truck trailer motorcycle evehicle custom1 custom2" speed="31.16" length="0.23" shape="5894.77,3738.60 5895.09,3738.70"/>
    </edge>
    <edge id=":106705774_0" function="internal">
        <lane id=":106705774_0_0" index="0" allow="private emergency authority army vip passenger hov taxi bus coach delivery truck trailer motorcycle evehicle custom1 custom2" speed="33.33" length="3.31" shape="5882.64,3729.25 5884.74,3731.72"/>
        <lane id=":106705774_0_1" index="1" allow="private emergency authority army vip passenger hov taxi bus coach delivery truck trailer motorcycle evehicle custom1 custom2" speed="33.33" length="3.31" shape="5881.44,3732.32 5883.68,3734.84"/>
    </edge>
    <edge id=":106705774_2" function="internal">
        <lane id=":106705774_2_0" index="0" allow="private emergency authority army vip passenger hov taxi bus coach delivery truck trailer motorcycle evehicle custom1 custom2" speed="33.33" length="3.14" shape="5882.52,3729.54 5884.74,3731.72"/>
        <lane id=":106705774_2_1" index="1" allow="private emergency authority army vip passenger hov taxi bus coach delivery truck trailer motorcycle evehicle custom1 custom2" speed="33.33" length="3.14" shape="5881.25,3732.79 5883.68,3734.84"/>
    </edge>
    <edge id=":106706938_0" function="internal">
        <lane id=":106706938_0_0" index="0" allow="private emergency authority army vip passenger hov taxi bus coach delivery truck trailer motorcycle evehicle custom1 custom2" speed="31.16" length="0.35" shape="5839.81,3770.09 5839.64,3770.11"/>
        <lane id=":106706938_0_1" index="1" allow="private emergency authority army vip passenger hov taxi bus coach delivery truck trailer motorcycle evehicle custom1 custom2" speed="31.16" length="0.35" shape="5839.64,3766.80 5839.12,3766.85"/>
    </edge>
    <edge id=":1253271433_0" function="internal">
        <lane id=":1253271433_0_0" index="0" allow="rail rail_electric" speed="83.33" length="2.22" shape="3896.55,4405.06 3894.39,4405.57"/>
    </edge>
    <edge id=":1253271433_1" function="internal">
        <lane id=":1253271433_1_0" index="0" allow="rail rail_electric" speed="83.33" length="1.32" shape="3894.45,4405.84 3894.89,4405.61 3895.02,4405.49 3894.86,4405.48 3894.39,4405.57"/>
    </edge>
    <edge id=":1261680426_0" function="internal">
        <lane id=":1261680426_0_0" index="0" allow="bicycle" speed="5.56" length="6.32" width="1.00" shape="3504.78,3872.65 3501.77,3867.09"/>
    </edge>
    <edge id=":1261680426_1" function="internal">
        <lane id=":1261680426_1_0" index="0" disallow="tram rail_urban rail rail_electric ship" speed="9.73" length="4.50" shape="3504.78,3872.65 3504.24,3871.35 3504.11,3870.24 3504.39,3869.32 3505.08,3868.58"/>
    </edge>
    <edge id=":1261680426_2" function="internal">
        <lane id=":1261680426_2_0" index="0" allow="bicycle" speed="9.73" length="4.39" width="1.00" shape="3501.50,3871.03 3502.19,3870.35 3502.46,3869.47 3502.32,3868.38 3501.77,3867.09"/>
    </edge>
    <edge id=":1261680426_3" function="internal">
        <lane id=":1261680426_3_0" index="0" disallow="tram rail_urban rail rail_electric ship" speed="13.89" length="4.34" shape="3501.50,3871.03 3505.08,3868.58"/>
    </edge>
    <edge id=":1261680432_0" function="internal">
        <lane id=":1261680432_0_0" index="0" allow="bicycle" speed="5.56" length="9.51" width="1.00" shape="3731.01,4292.29 3726.50,4283.92"/>
    </edge>
    <edge id=":1261680432_1" function="internal">
        <lane id=":1261680432_1_0" index="0" disallow="tram rail_urban rail rail_electric ship" speed="16.67" length="4.16" shape="3731.01,4292.29 3730.48,4291.03 3730.35,4290.00 3730.64,4289.20 3731.34,4288.62"/>
    </edge>
    <edge id=":1261680432_2" function="internal">
        <lane id=":1261680432_2_0" index="0" allow="bicycle" speed="16.67" length="4.20" width="1.00" shape="3726.16,4287.64 3726.86,4287.03 3727.15,4286.21 3727.03,4285.17 3726.50,4283.92"/>
    </edge>
    <edge id=":1261680432_3" function="internal">
        <lane id=":1261680432_3_0" index="0" disallow="tram rail_urban rail rail_electric ship" speed="27.78" length="4.11" shape="3726.16,4287.64 3729.84,4285.68"/>
        <lane id=":1261680432_3_1" index="1" disallow="tram rail_urban rail rail_electric ship" speed="27.78" length="4.11" shape="3727.76,4290.53 3731.34,4288.62"/>
    </edge>
    <edge id=":1261680442_0" function="internal">
        <lane id=":1261680442_0_0" index="0" disallow="tram rail_urban rail rail_electric ship" speed="9.73" length="4.20" shape="3542.16,3942.39 3541.40,3941.25 3540.60,3940.57 3539.76,3940.35 3538.88,3940.58"/>
    </edge>
    <edge id=":1261680442_1" function="internal">
        <lane id=":1261680442_1_0" index="0" allow="bicycle" speed="5.56" length="6.21" width="1.00" shape="3542.16,3942.39 3539.22,3936.91"/>
    </edge>
    <edge id=":1261680442_2" function="internal">
        <lane id=":1261680442_2_0" index="0" disallow="tram rail_urban rail rail_electric ship" speed="13.89" length="4.04" shape="3542.46,3938.71 3538.88,3940.58"/>
    </edge>
    <edge id=":1261680442_3" function="internal">
        <lane id=":1261680442_3_0" index="0" allow="bicycle" speed="9.73" length="4.17" width="1.00" shape="3542.46,3938.71 3541.59,3938.95 3540.76,3938.73 3539.97,3938.05 3539.22,3936.91"/>
    </edge>
    <edge id=":1261680453_0" function="internal">
        <lane id=":1261680453_0_0" index="0" disallow="tram rail_urban rail rail_electric ship" speed="16.67" length="4.28" shape="3467.51,3804.33 3466.74,3803.20 3465.92,3802.54 3465.05,3802.34 3464.12,3802.60"/>
    </edge>
    <edge id=":1261680453_1" function="internal">
        <lane id=":1261680453_1_0" index="0" allow="bicycle" speed="5.56" length="16.11" width="1.00" shape="3467.51,3804.33 3465.63,3800.88 3463.66,3797.25 3461.70,3793.62 3459.84,3790.16"/>
    </edge>
    <edge id=":1261680453_2" function="internal">
        <lane id=":1261680453_2_0" index="0" disallow="tram rail_urban rail rail_electric ship" speed="16.67" length="1.51" shape="3467.51,3804.33 3466.82,3802.98"/>
    </edge>
    <edge id=":1261680453_11" function="internal">
        <lane id=":1261680453_11_0" index="0" speed="16.67" length="8.79" shape="3466.82,3802.98 3465.59,3800.54 3464.47,3797.70 3464.16,3795.80 3464.66,3794.84"/>
    </edge>
    <edge id=":1261680453_3" function="internal">
        <lane id=":1261680453_3_0" index="0" disallow="tram rail_urban rail rail_electric ship" speed="27.78" length="4.13" shape="3467.79,3800.65 3464.12,3802.60"/>
        <lane id=":1261680453_3_1" index="1" disallow="tram rail_urban rail rail_electric ship" speed="27.78" length="4.13" shape="3466.22,3797.75 3462.59,3799.68"/>
    </edge>
    <edge id=":1261680453_5" function="internal">
        <lane id=":1261680453_5_0" index="0" allow="bicycle" speed="16.67" length="10.31" width="1.00" shape="3466.22,3797.75 3465.15,3797.64 3463.73,3796.33 3461.96,3793.84 3459.84,3790.16"/>
    </edge>
    <edge id=":1261680453_6" function="internal">
        <lane id=":1261680453_6_0" index="0" disallow="tram rail_urban rail rail_electric ship" speed="27.78" length="4.82" shape="3466.22,3797.75 3464.74,3797.61 3463.99,3797.08 3463.96,3796.16 3464.66,3794.84"/>
    </edge>
    <edge id=":1261680453_7" function="internal">
        <lane id=":1261680453_7_0" index="0" allow="bicycle" speed="16.67" length="4.16" width="1.00" shape="3459.52,3793.83 3460.21,3793.25 3460.49,3792.45 3460.37,3791.42 3459.84,3790.16"/>
    </edge>
    <edge id=":1261680453_8" function="internal">
        <lane id=":1261680453_8_0" index="0" disallow="tram rail_urban rail rail_electric ship" speed="27.78" length="4.06" shape="3459.52,3793.83 3463.09,3791.94"/>
        <lane id=":1261680453_8_1" index="1" disallow="tram rail_urban rail rail_electric ship" speed="27.78" length="4.06" shape="3461.06,3796.76 3464.66,3794.84"/>
    </edge>
    <edge id=":1261680453_10" function="internal">
        <lane id=":1261680453_10_0" index="0" disallow="tram rail_urban rail rail_electric ship" speed="27.78" length="4.82" shape="3461.06,3796.76 3462.54,3796.91 3463.28,3797.45 3463.30,3798.37 3462.59,3799.68"/>
    </edge>
    <edge id=":1261680455_0" function="internal">
        <lane id=":1261680455_0_0" index="0" disallow="tram rail_urban rail rail_electric ship" speed="9.73" length="4.17" shape="3691.51,4218.59 3690.76,4217.45 3689.97,4216.78 3689.13,4216.59 3688.26,4216.87"/>
    </edge>
    <edge id=":1261680455_1" function="internal">
        <lane id=":1261680455_1_0" index="0" allow="bicycle" speed="5.56" length="6.22" width="1.00" shape="3691.51,4218.59 3688.57,4213.11"/>
    </edge>
    <edge id=":1261680455_2" function="internal">
        <lane id=":1261680455_2_0" index="0" disallow="tram rail_urban rail rail_electric ship" speed="13.89" length="4.05" shape="3691.81,4214.89 3688.26,4216.87"/>
    </edge>
    <edge id=":1261680455_3" function="internal">
        <lane id=":1261680455_3_0" index="0" allow="bicycle" speed="9.73" length="4.15" width="1.00" shape="3691.81,4214.89 3690.94,4215.14 3690.12,4214.92 3689.33,4214.24 3688.57,4213.11"/>
    </edge>
    <edge id=":1261680460_0" function="internal">
        <lane id=":1261680460_0_0" index="0" allow="bicycle" speed="5.56" length="6.20" width="1.00" shape="3580.26,4013.07 3577.31,4007.62"/>
    </edge>
    <edge id=":1261680460_1" function="internal">
        <lane id=":1261680460_1_0" index="0" disallow="tram rail_urban rail rail_electric ship" speed="9.73" length="4.15" shape="3580.26,4013.07 3579.72,4011.82 3579.59,4010.79 3579.87,4009.98 3580.55,4009.39"/>
    </edge>
    <edge id=":1261680460_2" function="internal">
        <lane id=":1261680460_2_0" index="0" allow="bicycle" speed="9.73" length="4.17" width="1.00" shape="3577.02,4011.31 3577.70,4010.72 3577.97,4009.90 3577.84,4008.87 3577.31,4007.62"/>
    </edge>
    <edge id=":1261680460_3" function="internal">
        <lane id=":1261680460_3_0" index="0" disallow="tram rail_urban rail rail_electric ship" speed="13.89" length="4.02" shape="3577.02,4011.31 3580.55,4009.39"/>
    </edge>
    <edge id=":1261680467_0" function="internal">
        <lane id=":1261680467_0_0" index="0" allow="bicycle" speed="5.56" length="6.24" width="1.00" shape="3655.30,4151.35 3652.33,4145.86"/>
    </edge>
    <edge id=":1261680467_1" function="internal">
        <lane id=":1261680467_1_0" index="0" disallow="tram rail_urban rail rail_electric ship" speed="9.73" length="4.18" shape="3655.30,4151.35 3654.77,4150.09 3654.66,4149.06 3654.97,4148.27 3655.69,4147.70"/>
    </edge>
    <edge id=":1261680467_2" function="internal">
        <lane id=":1261680467_2_0" index="0" allow="bicycle" speed="9.73" length="4.16" width="1.00" shape="3652.00,4149.53 3652.70,4148.95 3652.99,4148.15 3652.87,4147.12 3652.33,4145.86"/>
    </edge>
    <edge id=":1261680467_3" function="internal">
        <lane id=":1261680467_3_0" index="0" disallow="tram rail_urban rail rail_electric ship" speed="13.89" length="4.12" shape="3652.00,4149.53 3655.69,4147.70"/>
    </edge>
    <edge id=":1289222404_0" function="internal">
        <lane id=":1289222404_0_0" index="0" disallow="tram rail_urban rail rail_electric ship" speed="13.89" length="5.00" shape="4964.08,4524.50 4968.48,4522.13"/>
    </edge>
    <edge id=":1289222416_0" function="internal">
        <lane id=":1289222416_0_0" index="0" disallow="tram rail_urban rail rail_electric ship" speed="13.89" length="5.00" shape="4851.79,4585.03 4856.19,4582.65"/>
    </edge>
    <edge id=":1289222420_0" function="internal">
        <lane id=":1289222420_0_0" index="0" disallow="tram rail_urban rail rail_electric ship" speed="27.78" length="5.00" shape="5048.56,4669.67 5044.16,4672.04"/>
        <lane id=":1289222420_0_1" index="1" disallow="tram rail_urban rail rail_electric ship" speed="27.78" length="5.00" shape="5046.99,4666.76 5042.60,4669.13"/>
    </edge>
    <edge id=":1289222420_2" function="internal">
        <lane id=":1289222420_2_0" index="0" disallow="tram rail_urban rail rail_electric ship" speed="27.78" length="2.41" shape="5046.99,4666.76 5045.51,4666.62 5044.76,4666.09"/>
    </edge>
    <edge id=":1289222420_6" function="internal">
        <lane id=":1289222420_6_0" index="0" speed="27.78" length="2.41" shape="5044.76,4666.09 5044.73,4665.17 5045.43,4663.86"/>
    </edge>
    <edge id=":1289222420_3" function="internal">
        <lane id=":1289222420_3_0" index="0" disallow="tram rail_urban rail rail_electric ship" speed="27.78" length="5.00" shape="5039.46,4663.32 5043.86,4660.95"/>
        <lane id=":1289222420_3_1" index="1" disallow="tram rail_urban rail rail_electric ship" speed="27.78" length="5.00" shape="5041.03,4666.23 5045.43,4663.86"/>
    </edge>
    <edge id=":1289222420_5" function="internal">
        <lane id=":1289222420_5_0" index="0" disallow="tram rail_urban rail rail_electric ship" speed="27.78" length="2.41" shape="5041.03,4666.23 5042.51,4666.37 5043.26,4666.90"/>
    </edge>
    <edge id=":1289222420_7" function="internal">
        <lane id=":1289222420_7_0" index="0" speed="27.78" length="2.41" shape="5043.26,4666.90 5043.29,4667.82 5042.60,4669.13"/>
    </edge>
    <edge id=":1289222431_0" function="internal">
        <lane id=":1289222431_0_0" index="0" disallow="tram rail_urban rail rail_electric ship" speed="27.78" length="5.00" shape="4935.36,4730.68 4930.96,4733.05"/>
        <lane id=":1289222431_0_1" index="1" disallow="tram rail_urban rail rail_electric ship" speed="27.78" length="5.00" shape="4933.80,4727.77 4929.40,4730.15"/>
    </edge>
    <edge id=":1289222431_2" function="internal">
        <lane id=":1289222431_2_0" index="0" disallow="tram rail_urban rail rail_electric ship" speed="27.78" length="2.41" shape="4933.80,4727.77 4932.32,4727.64 4931.56,4727.11"/>
    </edge>
    <edge id=":1289222431_6" function="internal">
        <lane id=":1289222431_6_0" index="0" speed="27.78" length="2.41" shape="4931.56,4727.11 4931.53,4726.18 4932.23,4724.87"/>
    </edge>
    <edge id=":1289222431_3" function="internal">
        <lane id=":1289222431_3_0" index="0" disallow="tram rail_urban rail rail_electric ship" speed="27.78" length="5.00" shape="4926.26,4724.34 4930.67,4721.96"/>
        <lane id=":1289222431_3_1" index="1" disallow="tram rail_urban rail rail_electric ship" speed="27.78" length="5.00" shape="4927.83,4727.24 4932.23,4724.87"/>
    </edge>
    <edge id=":1289222431_5" function="internal">
        <lane id=":1289222431_5_0" index="0" disallow="tram rail_urban rail rail_electric ship" speed="27.78" length="2.41" shape="4927.83,4727.24 4929.31,4727.38 4930.06,4727.91"/>
    </edge>
    <edge id=":1289222431_7" function="internal">
        <lane id=":1289222431_7_0" index="0" speed="27.78" length="2.41" shape="4930.06,4727.91 4930.09,4728.83 4929.40,4730.15"/>
    </edge>
    <edge id=":1329098617_0" function="internal">
        <lane id=":1329098617_0_0" index="0" disallow="tram rail_urban rail rail_electric ship" speed="13.89" length="5.47" shape="4584.75,4283.09 4579.93,4285.69"/>
    </edge>
    <edge id=":1533280147_0" function="internal">
        <lane id=":1533280147_0_0" index="0" disallow="tram rail_urban rail rail_electric ship" speed="27.78" length="4.28" shape="3783.20,4689.03 3784.42,4684.80"/>
        <lane id=":1533280147_0_1" index="1" disallow="tram rail_urban rail rail_electric ship" speed="27.78" length="4.28" shape="3785.87,4687.09 3787.29,4683.18"/>
    </edge>
    <edge id=":1533280147_2" function="internal">
        <lane id=":1533280147_2_0" index="0" disallow="tram rail_urban rail rail_electric ship" speed="27.78" length="2.41" shape="3788.54,4685.15 3788.48,4683.66 3788.91,4682.84"/>
    </edge>
    <edge id=":1533280147_5" function="internal">
        <lane id=":1533280147_5_0" index="0" speed="27.78" length="2.41" shape="3788.91,4682.84 3789.82,4682.69 3791.22,4683.21"/>
    </edge>
    <edge id=":1533280147_3" function="internal">
        <lane id=":1533280147_3_0" index="0" disallow="tram rail_urban rail rail_electric ship" speed="27.78" length="3.74" shape="3793.04,4679.95 3791.22,4683.21"/>
    </edge>
    <edge id=":1533280147_4" function="internal">
        <lane id=":1533280147_4_0" index="0" disallow="tram rail_urban rail rail_electric ship" speed="27.78" length="3.20" shape="3790.17,4681.56 3790.06,4683.05 3789.54,4683.81 3788.75,4683.85"/>
    </edge>
    <edge id=":1533280147_6" function="internal">
        <lane id=":1533280147_6_0" index="0" speed="27.78" length="1.62" shape="3788.75,4683.85 3788.62,4683.86 3787.29,4683.18"/>
    </edge>
    <edge id=":1577321467_0" function="internal">
        <lane id=":1577321467_0_0" index="0" disallow="tram rail_urban rail rail_electric ship" speed="9.73" length="4.99" shape="5914.71,3829.60 5915.51,3830.71 5916.47,3831.30 5917.60,3831.38 5918.89,3830.95"/>
    </edge>
    <edge id=":1577321467_1" function="internal">
        <lane id=":1577321467_1_0" index="0" allow="delivery bicycle pedestrian" speed="5.56" length="4.82" shape="5914.71,3829.60 5914.56,3831.08 5914.02,3831.83 5913.10,3831.85 5911.79,3831.14"/>
    </edge>
    <edge id=":1577321467_2" function="internal">
        <lane id=":1577321467_2_0" index="0" allow="delivery bicycle pedestrian" speed="9.73" length="4.98" shape="5910.52,3835.33 5911.61,3834.52 5912.19,3833.55 5912.25,3832.42 5911.79,3831.14"/>
    </edge>
    <edge id=":1577321467_3" function="internal">
        <lane id=":1577321467_3_0" index="0" disallow="tram rail_urban rail rail_electric ship" speed="13.89" length="9.45" shape="5910.52,3835.33 5918.89,3830.95"/>
    </edge>
    <edge id=":1577321470_0" function="internal">
        <lane id=":1577321470_0_0" index="0" disallow="tram rail_urban rail rail_electric ship" speed="16.67" length="5.01" shape="5879.07,3768.90 5878.27,3767.78 5877.30,3767.20 5876.17,3767.14 5874.88,3767.62"/>
    </edge>
    <edge id=":1577321470_1" function="internal">
        <lane id=":1577321470_1_0" index="0" allow="delivery bicycle pedestrian" speed="5.56" length="4.82" shape="5879.07,3768.90 5879.23,3767.42 5879.77,3766.67 5880.69,3766.65 5882.00,3767.36"/>
    </edge>
    <edge id=":1577321470_2" function="internal">
        <lane id=":1577321470_2_0" index="0" allow="delivery bicycle pedestrian" speed="16.67" length="5.05" shape="5883.23,3763.10 5882.14,3763.92 5881.57,3764.90 5881.52,3766.05 5882.00,3767.36"/>
    </edge>
    <edge id=":1577321470_3" function="internal">
        <lane id=":1577321470_3_0" index="0" disallow="tram rail_urban rail rail_electric ship" speed="27.78" length="9.48" shape="5883.23,3763.10 5874.88,3767.62"/>
        <lane id=":1577321470_3_1" index="1" disallow="tram rail_urban rail rail_electric ship" speed="27.78" length="9.48" shape="5881.64,3760.20 5873.32,3764.71"/>
    </edge>
    <edge id=":1690450548_0" function="internal">
        <lane id=":1690450548_0_0" index="0" allow="delivery bicycle pedestrian" speed="16.67" length="5.26" shape="5513.47,4455.33 5516.06,4459.91"/>
    </edge>
    <edge id=":1690450548_1" function="internal">
        <lane id=":1690450548_1_0" index="0" disallow="tram rail_urban rail rail_electric ship" speed="27.78" length="6.23" shape="5511.75,4458.14 5514.00,4462.92"/>
        <lane id=":1690450548_1_1" index="1" disallow="tram rail_urban rail rail_electric ship" speed="27.78" length="6.23" shape="5511.75,4458.14 5511.54,4465.31"/>
    </edge>
    <edge id=":1695371014_0" function="internal">
        <lane id=":1695371014_0_0" index="0" disallow="tram rail_urban rail rail_electric ship" speed="9.73" length="3.17" shape="4148.00,5065.36 4147.32,5064.17 4146.80,5063.33 4146.45,5062.87 4146.25,5062.76"/>
    </edge>
    <edge id=":1695371014_1" function="internal">
        <lane id=":1695371014_1_0" index="0" allow="bicycle" speed="5.56" length="6.44" width="1.00" shape="4148.00,5065.36 4144.94,5059.70"/>
    </edge>
    <edge id=":1695371014_2" function="internal">
        <lane id=":1695371014_2_0" index="0" disallow="tram rail_urban rail rail_electric ship" speed="13.89" length="2.72" shape="4148.27,5060.95 4146.25,5062.76"/>
    </edge>
    <edge id=":1695371014_3" function="internal">
        <lane id=":1695371014_3_0" index="0" allow="bicycle" speed="9.73" length="4.30" width="1.00" shape="4148.27,5060.95 4147.39,5061.49 4146.54,5061.46 4145.73,5060.87 4144.94,5059.70"/>
    </edge>
    <edge id=":1701844605_0" function="internal">
        <lane id=":1701844605_0_0" index="0" disallow="tram rail_urban rail rail_electric ship" speed="27.78" length="4.46" shape="5602.19,3916.58 5597.99,3917.38"/>
        <lane id=":1701844605_0_1" index="1" disallow="tram rail_urban rail rail_electric ship" speed="27.78" length="4.46" shape="5602.19,3916.58 5599.92,3912.53"/>
    </edge>
    <edge id=":1701844605_2" function="internal">
        <lane id=":1701844605_2_0" index="0" disallow="tram rail_urban rail rail_electric ship" speed="25.00" length="2.93" shape="5600.50,3907.69 5598.31,3909.64"/>
    </edge>
    <edge id=":1701844605_3" function="internal">
        <lane id=":1701844605_3_0" index="0" disallow="tram rail_urban rail rail_electric ship" speed="25.00" length="14.71" shape="5597.61,3908.16 5598.21,3911.58 5601.40,3914.15 5604.08,3916.26 5603.14,3918.29"/>
        <lane id=":1701844605_3_1" index="1" disallow="tram rail_urban rail rail_electric ship" speed="25.00" length="14.71" shape="5583.51,3921.80 5584.60,3923.01 5591.37,3920.35 5597.82,3917.32 5597.99,3917.38"/>
    </edge>
    <edge id=":1701844618_0" function="internal">
        <lane id=":1701844618_0_0" index="0" disallow="tram rail_urban rail rail_electric ship" speed="27.78" length="9.71" shape="3507.16,4394.82 3509.62,4394.06 3511.53,4395.36 3513.64,4397.19 3516.69,4398.05"/>
        <lane id=":1701844618_0_1" index="1" disallow="tram rail_urban rail rail_electric ship" speed="27.78" length="9.71" shape="3509.18,4397.43 3516.82,4401.34"/>
    </edge>
    <edge id=":1701844618_2" function="internal">
        <lane id=":1701844618_2_0" index="0" disallow="tram rail_urban rail rail_electric ship" speed="27.78" length="10.83" shape="3511.20,4400.04 3503.76,4405.88"/>
        <lane id=":1701844618_2_1" index="1" disallow="tram rail_urban rail rail_electric ship" speed="27.78" length="10.83" shape="3513.22,4402.65 3512.90,4402.36 3508.33,4404.94 3503.96,4408.00 3504.26,4409.15"/>
    </edge>
    <edge id=":1727780310_0" function="internal">
        <lane id=":1727780310_0_0" index="0" allow="delivery bicycle pedestrian" speed="9.73" length="8.82" shape="4007.24,4947.33 4001.94,4954.38"/>
    </edge>
    <edge id=":1727780310_1" function="internal">
        <lane id=":1727780310_1_0" index="0" disallow="tram rail_urban rail rail_electric ship" speed="13.89" length="9.13" shape="4007.24,4947.33 3999.18,4951.62"/>
    </edge>
    <edge id=":1731564119_0" function="internal">
        <lane id=":1731564119_0_0" index="0" disallow="tram rail_urban rail rail_electric ship" speed="13.89" length="4.98" shape="5631.77,4253.27 5636.16,4250.92"/>
    </edge>
    <edge id=":1731564121_0" function="internal">
        <lane id=":1731564121_0_0" index="0" disallow="tram rail_urban rail rail_electric ship" speed="13.89" length="5.02" shape="5595.10,4184.00 5599.53,4181.63"/>
    </edge>
    <edge id=":1731564125_0" function="internal">
        <lane id=":1731564125_0_0" index="0" disallow="tram rail_urban rail rail_electric ship" speed="27.78" length="5.00" shape="5659.56,4179.70 5661.92,4184.10"/>
        <lane id=":1731564125_0_1" index="1" disallow="tram rail_urban rail rail_electric ship" speed="27.78" length="5.00" shape="5656.65,4181.26 5659.02,4185.66"/>
    </edge>
    <edge id=":1745856010_0" function="internal">
        <lane id=":1745856010_0_0" index="0" disallow="tram rail_urban rail rail_electric ship" speed="13.89" length="5.00" shape="5347.40,5411.93 5351.80,5409.56"/>
    </edge>
    <edge id=":1745856081_0" function="internal">